8

C    0.00000000  0.00000000  0.00000000
C    1.53956712  0.03651147 -0.00000000
Cl   2.08672791  1.70929809 -0.00000000
H    1.91498061 -0.46856084  0.88998127
H    1.91498061 -0.46856084 -0.88998127
Cl  -0.54716079 -1.67278662 -0.00000000
H   -0.37541349  0.50507232  0.88998127
H   -0.37541349  0.50507232 -0.88998127
